*SPEF "IEEE 1481-1998"
*DESIGN "IIR_lookahead"
*DATE "Mon Nov 15 20:19:36 2021"
*VENDOR "Cadence Design Systems, Inc."
*PROGRAM "Innovus"
*VERSION "17.11-s080_1"
*DESIGN_FLOW "COUPLING C" "PIN_CAP NONE" "NAME_SCOPE LOCAL"
*DIVIDER /
*DELIMITER :
*BUS_DELIMITER []
*T_UNIT 1 NS
*C_UNIT 1 PF
*R_UNIT 1 OHM
*L_UNIT 1 HENRY

// MMMC spef file for corner 'my_rc'

*NAME_MAP

*1 FE_OFN1_q3
*2 FE_OFN0_q2
*3 FE_DBTN6_u_del_vec_0
*4 FE_DBTN5_u_del_vec_1
*5 FE_DBTN4_u_del_vec_2
*6 FE_DBTN3_u_del_vec_3
*7 FE_DBTN2_u_del_vec_4
*8 FE_DBTN1_u_del_vec_5
*9 FE_DBTN0_u_del_vec_6
*10 DIN[11]
*11 DIN[10]
*12 DIN[9]
*13 DIN[8]
*14 DIN[7]
*15 DIN[6]
*16 DIN[5]
*17 DIN[4]
*18 DIN[3]
*19 DIN[2]
*20 DIN[1]
*21 DIN[0]
*22 b0[11]
*23 b0[10]
*24 b0[9]
*25 b0[8]
*26 b0[7]
*27 b0[6]
*28 b0[5]
*29 b0[4]
*30 b0[3]
*31 b0[2]
*32 b0[1]
*33 b0[0]
*34 b1[11]
*35 b1[10]
*36 b1[9]
*37 b1[8]
*38 b1[7]
*39 b1[6]
*40 b1[5]
*41 b1[4]
*42 b1[3]
*43 b1[2]
*44 b1[1]
*45 b1[0]
*46 b2[11]
*47 b2[10]
*48 b2[9]
*49 b2[8]
*50 b2[7]
*51 b2[6]
*52 b2[5]
*53 b2[4]
*54 b2[3]
*55 b2[2]
*56 b2[1]
*57 b2[0]
*58 a1[11]
*59 a1[10]
*60 a1[9]
*61 a1[8]
*62 a1[7]
*63 a1[6]
*64 a1[5]
*65 a1[4]
*66 a1[3]
*67 a1[2]
*68 a1[1]
*69 a1[0]
*70 DOUT[11]
*71 DOUT[10]
*72 DOUT[9]
*73 DOUT[8]
*74 DOUT[7]
*75 DOUT[6]
*76 DOUT[5]
*77 DOUT[4]
*78 CLK
*79 RST_n
*80 VIN
*81 VOUT
*82 q1
*83 q2
*84 q3
*85 regX0_n21
*86 regX0_n20
*87 regX0_n19
*88 regX0_n18
*89 regX0_n17
*90 regX0_n16
*91 regX0_n15
*92 regX0_n14
*93 regX0_n13
*94 regX0_n12
*95 regX0_n11
*96 regX0_n10
*97 regX0_n9
*98 regX0_n8
*99 regX0_n7
*100 regX0_n6
*101 regX0_n5
*102 regX0_n4
*103 regX0_n3
*104 regX0_n2
*105 regX0_n1
*106 regU_n24
*107 regU_n23
*108 regU_n22
*109 regU_n21
*110 regU_n20
*111 regU_n19
*112 regU_n18
*113 regU_n17
*114 regU_n16
*115 regU_n15
*116 regU_n14
*117 regU_n13
*118 regU_n12
*119 regU_n11
*120 regU_n10
*121 regU_n9
*122 regU_n8
*123 regU_n7
*124 regU_n6
*125 regU_n5
*126 regU_n4
*127 regU_n3
*128 regU_n2
*129 regU_n1
*130 rega1_n44
*131 rega1_n43
*132 rega1_n42
*133 rega1_n41
*134 rega1_n40
*135 rega1_n39
*136 rega1_n38
*137 rega1_n37
*138 rega1_n36
*139 rega1_n35
*140 rega1_n34
*141 rega1_n33
*142 rega1_n32
*143 rega1_n31
*144 rega1_n30
*145 rega1_n29
*146 rega1_n28
*147 rega1_n27
*148 rega1_n26
*149 rega1_n25
*150 rega1_n24
*151 regb0_n44
*152 regb0_n43
*153 regb0_n42
*154 regb0_n41
*155 regb0_n40
*156 regb0_n39
*157 regb0_n38
*158 regb0_n37
*159 regb0_n36
*160 regb0_n35
*161 regb0_n34
*162 regb0_n33
*163 regb0_n32
*164 regb0_n31
*165 regb0_n30
*166 regb0_n29
*167 regb0_n28
*168 regb0_n27
*169 regb0_n26
*170 regb0_n25
*171 regb0_n24
*172 regb1_n44
*173 regb1_n43
*174 regb1_n42
*175 regb1_n41
*176 regb1_n40
*177 regb1_n39
*178 regb1_n38
*179 regb1_n37
*180 regb1_n36
*181 regb1_n35
*182 regb1_n34
*183 regb1_n33
*184 regb1_n32
*185 regb1_n31
*186 regb1_n30
*187 regb1_n29
*188 regb1_n28
*189 regb1_n27
*190 regb1_n26
*191 regb1_n25
*192 regb1_n24
*193 regU2_n50
*194 regU2_n49
*195 regU2_n48
*196 regU2_n47
*197 regU2_n46
*198 regU2_n45
*199 regU2_n44
*200 regU2_n43
*201 regU2_n42
*202 regU2_n41
*203 regU2_n40
*204 regU2_n39
*205 regU2_n38
*206 regU2_n37
*207 regU2_n36
*208 regU2_n35
*209 regU2_n34
*210 regU2_n33
*211 regU2_n32
*212 regU2_n31
*213 regU2_n30
*214 regU2_n29
*215 regU2_n28
*216 regU2_n27
*217 regb2_n44
*218 regb2_n43
*219 regb2_n42
*220 regb2_n41
*221 regb2_n40
*222 regb2_n39
*223 regb2_n38
*224 regb2_n37
*225 regb2_n36
*226 regb2_n35
*227 regb2_n34
*228 regb2_n33
*229 regb2_n32
*230 regb2_n31
*231 regb2_n30
*232 regb2_n29
*233 regb2_n28
*234 regb2_n27
*235 regb2_n26
*236 regb2_n25
*237 regb2_n24
*238 regsum_n44
*239 regsum_n43
*240 regsum_n42
*241 regsum_n41
*242 regsum_n40
*243 regsum_n39
*244 regsum_n38
*245 regsum_n37
*246 regsum_n36
*247 regsum_n35
*248 regsum_n34
*249 regsum_n33
*250 regsum_n32
*251 regsum_n31
*252 regsum_n30
*253 regsum_n29
*254 regsum_n28
*255 regsum_n27
*256 regsum_n26
*257 regsum_n25
*258 regsum_n24
*259 regY_n50
*260 regY_n49
*261 regY_n48
*262 regY_n47
*263 regY_n46
*264 regY_n45
*265 regY_n44
*266 regY_n43
*267 regY_n42
*268 regY_n41
*269 regY_n40
*270 regY_n39
*271 regY_n38
*272 regY_n37
*273 regY_n36
*274 regY_n35
*275 regY_n34
*276 regY_n33
*277 regY_n32
*278 regY_n31
*279 regY_n30
*280 regY_n29
*281 regY_n28
*282 regY_n27
*283 add_96_n2
*284 add_90_n2
*285 add_60_n2
*286 mult_85_n208
*287 mult_85_n207
*288 mult_85_n206
*289 mult_85_n205
*290 mult_85_n204
*291 mult_85_n203
*292 mult_85_n202
*293 mult_85_n201
*294 mult_85_n200
*295 mult_85_n199
*296 mult_85_n198
*297 mult_85_n197
*298 mult_85_n196
*299 mult_85_n195
*300 mult_85_n194
*301 mult_85_n193
*302 mult_85_n192
*303 mult_85_n191
*304 mult_85_n190
*305 mult_85_n189
*306 mult_85_n188
*307 mult_85_n187
*308 mult_85_n186
*309 mult_85_n185
*310 mult_85_n184
*311 mult_85_n183
*312 mult_85_n182
*313 mult_85_n181
*314 mult_85_n180
*315 mult_85_n179
*316 mult_85_n136
*317 mult_85_n135
*318 mult_85_n134
*319 mult_85_n133
*320 mult_85_n131
*321 mult_85_n129
*322 mult_85_n128
*323 mult_85_n127
*324 mult_85_n126
*325 mult_85_n125
*326 mult_85_n124
*327 mult_85_n123
*328 mult_85_n121
*329 mult_85_n120
*330 mult_85_n119
*331 mult_85_n118
*332 mult_85_n117
*333 mult_85_n116
*334 mult_85_n115
*335 mult_85_n114
*336 mult_85_n113
*337 mult_85_n112
*338 mult_85_n111
*339 mult_85_n110
*340 mult_85_n109
*341 mult_85_n108
*342 mult_85_n107
*343 mult_85_n106
*344 mult_85_n105
*345 mult_85_n103
*346 mult_85_n102
*347 mult_85_n101
*348 mult_85_n100
*349 mult_85_n99
*350 mult_85_n98
*351 mult_85_n97
*352 mult_85_n96
*353 mult_85_n95
*354 mult_85_n94
*355 mult_85_n93
*356 mult_85_n91
*357 mult_85_n90
*358 mult_85_n89
*359 mult_85_n88
*360 mult_85_n87
*361 mult_85_n86
*362 mult_85_n84
*363 mult_85_n83
*364 mult_85_n82
*365 mult_85_n81
*366 mult_85_n80
*367 mult_85_n79
*368 mult_85_n78
*369 mult_85_n77
*370 mult_85_n76
*371 mult_85_n75
*372 mult_85_n74
*373 mult_85_n73
*374 mult_85_n72
*375 mult_85_n71
*376 mult_85_n70
*377 mult_85_n69
*378 mult_85_n68
*379 mult_85_n67
*380 mult_85_n66
*381 mult_85_n65
*382 mult_85_n64
*383 mult_85_n63
*384 mult_85_n62
*385 mult_85_n61
*386 mult_85_n60
*387 mult_85_n59
*388 mult_85_n58
*389 mult_85_n57
*390 mult_85_n56
*391 mult_85_n55
*392 mult_85_n54
*393 mult_85_n52
*394 mult_85_n51
*395 mult_85_n50
*396 mult_85_n49
*397 mult_85_n48
*398 mult_85_n47
*399 mult_85_n46
*400 mult_85_n45
*401 mult_85_n44
*402 mult_85_n43
*403 mult_85_n42
*404 mult_85_n41
*405 mult_85_n40
*406 mult_85_n39
*407 mult_85_n38
*408 mult_85_n37
*409 mult_85_n36
*410 mult_85_n35
*411 mult_85_n34
*412 mult_85_n33
*413 mult_85_n32
*414 mult_85_n31
*415 mult_85_n30
*416 mult_85_n29
*417 mult_85_n28
*418 mult_85_n27
*419 mult_85_n26
*420 mult_85_n25
*421 mult_85_n24
*422 mult_85_n23
*423 mult_85_n22
*424 mult_85_n21
*425 mult_85_n20
*426 mult_85_n19
*427 mult_85_n18
*428 mult_85_n17
*429 mult_85_n16
*430 mult_85_n15
*431 mult_85_n8
*432 mult_85_n7
*433 mult_85_n6
*434 mult_85_n5
*435 mult_85_n4
*436 mult_85_n3
*437 mult_85_n2
*438 mult_78_n208
*439 mult_78_n207
*440 mult_78_n206
*441 mult_78_n205
*442 mult_78_n204
*443 mult_78_n203
*444 mult_78_n202
*445 mult_78_n201
*446 mult_78_n200
*447 mult_78_n199
*448 mult_78_n198
*449 mult_78_n197
*450 mult_78_n196
*451 mult_78_n195
*452 mult_78_n194
*453 mult_78_n193
*454 mult_78_n192
*455 mult_78_n191
*456 mult_78_n188
*457 mult_78_n186
*458 mult_78_n184
*459 mult_78_n183
*460 mult_78_n180
*461 mult_78_n136
*462 mult_78_n135
*463 mult_78_n134
*464 mult_78_n133
*465 mult_78_n131
*466 mult_78_n129
*467 mult_78_n128
*468 mult_78_n127
*469 mult_78_n126
*470 mult_78_n125
*471 mult_78_n124
*472 mult_78_n123
*473 mult_78_n121
*474 mult_78_n120
*475 mult_78_n119
*476 mult_78_n118
*477 mult_78_n117
*478 mult_78_n116
*479 mult_78_n115
*480 mult_78_n114
*481 mult_78_n113
*482 mult_78_n112
*483 mult_78_n111
*484 mult_78_n110
*485 mult_78_n109
*486 mult_78_n108
*487 mult_78_n107
*488 mult_78_n106
*489 mult_78_n105
*490 mult_78_n103
*491 mult_78_n102
*492 mult_78_n101
*493 mult_78_n100
*494 mult_78_n99
*495 mult_78_n98
*496 mult_78_n97
*497 mult_78_n96
*498 mult_78_n95
*499 mult_78_n94
*500 mult_78_n93
*501 mult_78_n91
*502 mult_78_n90
*503 mult_78_n89
*504 mult_78_n88
*505 mult_78_n87
*506 mult_78_n86
*507 mult_78_n84
*508 mult_78_n83
*509 mult_78_n82
*510 mult_78_n81
*511 mult_78_n80
*512 mult_78_n79
*513 mult_78_n78
*514 mult_78_n77
*515 mult_78_n76
*516 mult_78_n75
*517 mult_78_n74
*518 mult_78_n73
*519 mult_78_n72
*520 mult_78_n71
*521 mult_78_n70
*522 mult_78_n69
*523 mult_78_n68
*524 mult_78_n67
*525 mult_78_n66
*526 mult_78_n65
*527 mult_78_n64
*528 mult_78_n63
*529 mult_78_n62
*530 mult_78_n61
*531 mult_78_n60
*532 mult_78_n59
*533 mult_78_n58
*534 mult_78_n57
*535 mult_78_n56
*536 mult_78_n55
*537 mult_78_n54
*538 mult_78_n52
*539 mult_78_n51
*540 mult_78_n50
*541 mult_78_n49
*542 mult_78_n48
*543 mult_78_n47
*544 mult_78_n46
*545 mult_78_n45
*546 mult_78_n44
*547 mult_78_n43
*548 mult_78_n42
*549 mult_78_n41
*550 mult_78_n40
*551 mult_78_n39
*552 mult_78_n38
*553 mult_78_n37
*554 mult_78_n36
*555 mult_78_n35
*556 mult_78_n34
*557 mult_78_n33
*558 mult_78_n32
*559 mult_78_n31
*560 mult_78_n30
*561 mult_78_n29
*562 mult_78_n28
*563 mult_78_n27
*564 mult_78_n26
*565 mult_78_n25
*566 mult_78_n24
*567 mult_78_n23
*568 mult_78_n22
*569 mult_78_n21
*570 mult_78_n20
*571 mult_78_n19
*572 mult_78_n18
*573 mult_78_n17
*574 mult_78_n16
*575 mult_78_n15
*576 mult_78_n8
*577 mult_78_n7
*578 mult_78_n6
*579 mult_78_n5
*580 mult_78_n4
*581 mult_78_n3
*582 mult_78_n2
*583 mult_73_n208
*584 mult_73_n207
*585 mult_73_n206
*586 mult_73_n205
*587 mult_73_n204
*588 mult_73_n203
*589 mult_73_n202
*590 mult_73_n201
*591 mult_73_n200
*592 mult_73_n199
*593 mult_73_n198
*594 mult_73_n197
*595 mult_73_n196
*596 mult_73_n195
*597 mult_73_n194
*598 mult_73_n193
*599 mult_73_n192
*600 mult_73_n191
*601 mult_73_n188
*602 mult_73_n186
*603 mult_73_n184
*604 mult_73_n183
*605 mult_73_n180
*606 mult_73_n136
*607 mult_73_n135
*608 mult_73_n134
*609 mult_73_n133
*610 mult_73_n131
*611 mult_73_n129
*612 mult_73_n128
*613 mult_73_n127
*614 mult_73_n126
*615 mult_73_n125
*616 mult_73_n124
*617 mult_73_n123
*618 mult_73_n121
*619 mult_73_n120
*620 mult_73_n119
*621 mult_73_n118
*622 mult_73_n117
*623 mult_73_n116
*624 mult_73_n115
*625 mult_73_n114
*626 mult_73_n113
*627 mult_73_n112
*628 mult_73_n111
*629 mult_73_n110
*630 mult_73_n109
*631 mult_73_n108
*632 mult_73_n107
*633 mult_73_n106
*634 mult_73_n105
*635 mult_73_n103
*636 mult_73_n102
*637 mult_73_n101
*638 mult_73_n100
*639 mult_73_n99
*640 mult_73_n98
*641 mult_73_n97
*642 mult_73_n96
*643 mult_73_n95
*644 mult_73_n94
*645 mult_73_n93
*646 mult_73_n91
*647 mult_73_n90
*648 mult_73_n89
*649 mult_73_n88
*650 mult_73_n87
*651 mult_73_n86
*652 mult_73_n84
*653 mult_73_n83
*654 mult_73_n82
*655 mult_73_n81
*656 mult_73_n80
*657 mult_73_n79
*658 mult_73_n78
*659 mult_73_n77
*660 mult_73_n76
*661 mult_73_n75
*662 mult_73_n74
*663 mult_73_n73
*664 mult_73_n72
*665 mult_73_n71
*666 mult_73_n70
*667 mult_73_n69
*668 mult_73_n68
*669 mult_73_n67
*670 mult_73_n66
*671 mult_73_n65
*672 mult_73_n64
*673 mult_73_n63
*674 mult_73_n62
*675 mult_73_n61
*676 mult_73_n60
*677 mult_73_n59
*678 mult_73_n58
*679 mult_73_n57
*680 mult_73_n56
*681 mult_73_n55
*682 mult_73_n54
*683 mult_73_n52
*684 mult_73_n51
*685 mult_73_n50
*686 mult_73_n49
*687 mult_73_n48
*688 mult_73_n47
*689 mult_73_n46
*690 mult_73_n45
*691 mult_73_n44
*692 mult_73_n43
*693 mult_73_n42
*694 mult_73_n41
*695 mult_73_n40
*696 mult_73_n39
*697 mult_73_n38
*698 mult_73_n37
*699 mult_73_n36
*700 mult_73_n35
*701 mult_73_n34
*702 mult_73_n33
*703 mult_73_n32
*704 mult_73_n31
*705 mult_73_n30
*706 mult_73_n29
*707 mult_73_n28
*708 mult_73_n27
*709 mult_73_n26
*710 mult_73_n25
*711 mult_73_n24
*712 mult_73_n23
*713 mult_73_n22
*714 mult_73_n21
*715 mult_73_n20
*716 mult_73_n19
*717 mult_73_n18
*718 mult_73_n17
*719 mult_73_n16
*720 mult_73_n15
*721 mult_73_n8
*722 mult_73_n7
*723 mult_73_n6
*724 mult_73_n5
*725 mult_73_n4
*726 mult_73_n3
*727 mult_73_n2
*728 mult_68_n208
*729 mult_68_n207
*730 mult_68_n206
*731 mult_68_n205
*732 mult_68_n204
*733 mult_68_n203
*734 mult_68_n202
*735 mult_68_n201
*736 mult_68_n200
*737 mult_68_n199
*738 mult_68_n198
*739 mult_68_n197
*740 mult_68_n196
*741 mult_68_n195
*742 mult_68_n194
*743 mult_68_n193
*744 mult_68_n192
*745 mult_68_n191
*746 mult_68_n188
*747 mult_68_n186
*748 mult_68_n184
*749 mult_68_n183
*750 mult_68_n180
*751 mult_68_n136
*752 mult_68_n135
*753 mult_68_n134
*754 mult_68_n133
*755 mult_68_n131
*756 mult_68_n129
*757 mult_68_n128
*758 mult_68_n127
*759 mult_68_n126
*760 mult_68_n125
*761 mult_68_n124
*762 mult_68_n123
*763 mult_68_n121
*764 mult_68_n120
*765 mult_68_n119
*766 mult_68_n118
*767 mult_68_n117
*768 mult_68_n116
*769 mult_68_n115
*770 mult_68_n114
*771 mult_68_n113
*772 mult_68_n112
*773 mult_68_n111
*774 mult_68_n110
*775 mult_68_n109
*776 mult_68_n108
*777 mult_68_n107
*778 mult_68_n106
*779 mult_68_n105
*780 mult_68_n103
*781 mult_68_n102
*782 mult_68_n101
*783 mult_68_n100
*784 mult_68_n99
*785 mult_68_n98
*786 mult_68_n97
*787 mult_68_n96
*788 mult_68_n95
*789 mult_68_n94
*790 mult_68_n93
*791 mult_68_n91
*792 mult_68_n90
*793 mult_68_n89
*794 mult_68_n88
*795 mult_68_n87
*796 mult_68_n86
*797 mult_68_n84
*798 mult_68_n83
*799 mult_68_n82
*800 mult_68_n81
*801 mult_68_n80
*802 mult_68_n79
*803 mult_68_n78
*804 mult_68_n77
*805 mult_68_n76
*806 mult_68_n75
*807 mult_68_n74
*808 mult_68_n73
*809 mult_68_n72
*810 mult_68_n71
*811 mult_68_n70
*812 mult_68_n69
*813 mult_68_n68
*814 mult_68_n67
*815 mult_68_n66
*816 mult_68_n65
*817 mult_68_n64
*818 mult_68_n63
*819 mult_68_n62
*820 mult_68_n61
*821 mult_68_n60
*822 mult_68_n59
*823 mult_68_n58
*824 mult_68_n57
*825 mult_68_n56
*826 mult_68_n55
*827 mult_68_n54
*828 mult_68_n52
*829 mult_68_n51
*830 mult_68_n50
*831 mult_68_n49
*832 mult_68_n48
*833 mult_68_n47
*834 mult_68_n46
*835 mult_68_n45
*836 mult_68_n44
*837 mult_68_n43
*838 mult_68_n42
*839 mult_68_n41
*840 mult_68_n40
*841 mult_68_n39
*842 mult_68_n38
*843 mult_68_n37
*844 mult_68_n36
*845 mult_68_n35
*846 mult_68_n34
*847 mult_68_n33
*848 mult_68_n32
*849 mult_68_n31
*850 mult_68_n30
*851 mult_68_n29
*852 mult_68_n28
*853 mult_68_n27
*854 mult_68_n26
*855 mult_68_n25
*856 mult_68_n24
*857 mult_68_n23
*858 mult_68_n22
*859 mult_68_n21
*860 mult_68_n20
*861 mult_68_n19
*862 mult_68_n18
*863 mult_68_n17
*864 mult_68_n16
*865 mult_68_n15
*866 mult_68_n8
*867 mult_68_n7
*868 mult_68_n6
*869 mult_68_n5
*870 mult_68_n4
*871 mult_68_n3
*872 mult_68_n2
*873 din_del[6]
*874 din_del[5]
*875 din_del[4]
*876 din_del[3]
*877 din_del[2]
*878 din_del[1]
*879 din_del[0]
*880 u[7]
*881 u[6]
*882 u[5]
*883 u[4]
*884 u[3]
*885 u[2]
*886 u[1]
*887 u[0]
*888 u_del_vec[7]
*889 u_del_vec[6]
*890 u_del_vec[5]
*891 u_del_vec[4]
*892 u_del_vec[3]
*893 u_del_vec[2]
*894 u_del_vec[1]
*895 u_del_vec[0]
*896 mula1[12]
*897 mula1[11]
*898 mula1[10]
*899 mula1[9]
*900 mula1[8]
*901 mula1[7]
*902 mula1[6]
*903 t_mula1_del_vec[6]
*904 t_mula1_del_vec[5]
*905 t_mula1_del_vec[4]
*906 t_mula1_del_vec[3]
*907 t_mula1_del_vec[2]
*908 t_mula1_del_vec[1]
*909 t_mula1_del_vec[0]
*910 mulb0[12]
*911 mulb0[11]
*912 mulb0[10]
*913 mulb0[9]
*914 mulb0[8]
*915 mulb0[7]
*916 mulb0[6]
*917 t_mulb0_del_vec[6]
*918 t_mulb0_del_vec[5]
*919 t_mulb0_del_vec[4]
*920 t_mulb0_del_vec[3]
*921 t_mulb0_del_vec[2]
*922 t_mulb0_del_vec[1]
*923 t_mulb0_del_vec[0]
*924 mulb1[12]
*925 mulb1[11]
*926 mulb1[10]
*927 mulb1[9]
*928 mulb1[8]
*929 mulb1[7]
*930 mulb1[6]
*931 t_mulb1_del_vec[6]
*932 t_mulb1_del_vec[5]
*933 t_mulb1_del_vec[4]
*934 t_mulb1_del_vec[3]
*935 t_mulb1_del_vec[2]
*936 t_mulb1_del_vec[1]
*937 t_mulb1_del_vec[0]
*938 u_del_vec2[7]
*939 u_del_vec2[6]
*940 u_del_vec2[5]
*941 u_del_vec2[4]
*942 u_del_vec2[3]
*943 u_del_vec2[2]
*944 u_del_vec2[1]
*945 u_del_vec2[0]
*946 mulb2[12]
*947 mulb2[11]
*948 mulb2[10]
*949 mulb2[9]
*950 mulb2[8]
*951 mulb2[7]
*952 mulb2[6]
*953 t_mulb2_del_vec[6]
*954 t_mulb2_del_vec[5]
*955 t_mulb2_del_vec[4]
*956 t_mulb2_del_vec[3]
*957 t_mulb2_del_vec[2]
*958 t_mulb2_del_vec[1]
*959 t_mulb2_del_vec[0]
*960 sum1[6]
*961 sum1[5]
*962 sum1[4]
*963 sum1[3]
*964 sum1[2]
*965 sum1[1]
*966 sum1[0]
*967 sum1_del_vec[6]
*968 sum1_del_vec[5]
*969 sum1_del_vec[4]
*970 sum1_del_vec[3]
*971 sum1_del_vec[2]
*972 sum1_del_vec[1]
*973 sum1_del_vec[0]
*974 y[7]
*975 y[6]
*976 y[5]
*977 y[4]
*978 y[3]
*979 y[2]
*980 y[1]
*981 y[0]
*982 add_96_carry[7]
*983 add_96_carry[6]
*984 add_96_carry[5]
*985 add_96_carry[4]
*986 add_96_carry[3]
*987 add_96_carry[2]
*988 add_90_carry[6]
*989 add_90_carry[5]
*990 add_90_carry[4]
*991 add_90_carry[3]
*992 add_90_carry[2]
*993 add_60_carry[7]
*994 add_60_carry[6]
*995 add_60_carry[5]
*996 add_60_carry[4]
*997 add_60_carry[3]
*998 add_60_carry[2]
*999 DOUT[3]
*1000 DOUT[2]
*1001 DOUT[1]
*1002 DOUT[0]
*1003 FE_OFC1_q3
*1004 FE_OFC0_q2
*1005 FE_DBTC6_u_del_vec_0
*1006 FE_DBTC5_u_del_vec_1
*1007 FE_DBTC4_u_del_vec_2
*1008 FE_DBTC3_u_del_vec_3
*1009 FE_DBTC2_u_del_vec_4
*1010 FE_DBTC1_u_del_vec_5
*1011 FE_DBTC0_u_del_vec_6
*1012 regX0_U15
*1013 regX0_U14
*1014 regX0_U13
*1015 regX0_U12
*1016 regX0_U11
*1017 regX0_U10
*1018 regX0_U9
*1019 regX0_U8
*1020 regX0_U7
*1021 regX0_U6
*1022 regX0_U5
*1023 regX0_U4
*1024 regX0_U3
*1025 regX0_U2
*1026 regX0_Q_reg_0_
*1027 regX0_Q_reg_1_
*1028 regX0_Q_reg_2_
*1029 regX0_Q_reg_3_
*1030 regX0_Q_reg_4_
*1031 regX0_Q_reg_5_
*1032 regX0_Q_reg_6_
*1033 regU_U17
*1034 regU_U16
*1035 regU_U15
*1036 regU_U14
*1037 regU_U13
*1038 regU_U12
*1039 regU_U11
*1040 regU_U10
*1041 regU_U9
*1042 regU_U8
*1043 regU_U7
*1044 regU_U6
*1045 regU_U5
*1046 regU_U4
*1047 regU_U3
*1048 regU_U2
*1049 regU_Q_reg_0_
*1050 regU_Q_reg_1_
*1051 regU_Q_reg_2_
*1052 regU_Q_reg_3_
*1053 regU_Q_reg_4_
*1054 regU_Q_reg_5_
*1055 regU_Q_reg_6_
*1056 regU_Q_reg_7_
*1057 rega1_U17
*1058 rega1_U16
*1059 rega1_U15
*1060 rega1_U14
*1061 rega1_U13
*1062 rega1_U12
*1063 rega1_U11
*1064 rega1_U10
*1065 rega1_U9
*1066 rega1_U8
*1067 rega1_U7
*1068 rega1_U6
*1069 rega1_U5
*1070 rega1_U4
*1071 rega1_Q_reg_0_
*1072 rega1_Q_reg_1_
*1073 rega1_Q_reg_2_
*1074 rega1_Q_reg_3_
*1075 rega1_Q_reg_4_
*1076 rega1_Q_reg_5_
*1077 rega1_Q_reg_6_
*1078 regb0_U17
*1079 regb0_U16
*1080 regb0_U15
*1081 regb0_U14
*1082 regb0_U13
*1083 regb0_U12
*1084 regb0_U11
*1085 regb0_U10
*1086 regb0_U9
*1087 regb0_U8
*1088 regb0_U7
*1089 regb0_U6
*1090 regb0_U5
*1091 regb0_U4
*1092 regb0_Q_reg_0_
*1093 regb0_Q_reg_1_
*1094 regb0_Q_reg_2_
*1095 regb0_Q_reg_3_
*1096 regb0_Q_reg_4_
*1097 regb0_Q_reg_5_
*1098 regb0_Q_reg_6_
*1099 regb1_U17
*1100 regb1_U16
*1101 regb1_U15
*1102 regb1_U14
*1103 regb1_U13
*1104 regb1_U12
*1105 regb1_U11
*1106 regb1_U10
*1107 regb1_U9
*1108 regb1_U8
*1109 regb1_U7
*1110 regb1_U6
*1111 regb1_U5
*1112 regb1_U4
*1113 regb1_Q_reg_0_
*1114 regb1_Q_reg_1_
*1115 regb1_Q_reg_2_
*1116 regb1_Q_reg_3_
*1117 regb1_Q_reg_4_
*1118 regb1_Q_reg_5_
*1119 regb1_Q_reg_6_
*1120 regU2_U19
*1121 regU2_U18
*1122 regU2_U17
*1123 regU2_U16
*1124 regU2_U15
*1125 regU2_U14
*1126 regU2_U13
*1127 regU2_U12
*1128 regU2_U11
*1129 regU2_U10
*1130 regU2_U9
*1131 regU2_U8
*1132 regU2_U7
*1133 regU2_U6
*1134 regU2_U5
*1135 regU2_U4
*1136 regU2_Q_reg_0_
*1137 regU2_Q_reg_1_
*1138 regU2_Q_reg_2_
*1139 regU2_Q_reg_3_
*1140 regU2_Q_reg_4_
*1141 regU2_Q_reg_5_
*1142 regU2_Q_reg_6_
*1143 regU2_Q_reg_7_
*1144 regb2_U17
*1145 regb2_U16
*1146 regb2_U15
*1147 regb2_U14
*1148 regb2_U13
*1149 regb2_U12
*1150 regb2_U11
*1151 regb2_U10
*1152 regb2_U9
*1153 regb2_U8
*1154 regb2_U7
*1155 regb2_U6
*1156 regb2_U5
*1157 regb2_U4
*1158 regb2_Q_reg_0_
*1159 regb2_Q_reg_1_
*1160 regb2_Q_reg_2_
*1161 regb2_Q_reg_3_
*1162 regb2_Q_reg_4_
*1163 regb2_Q_reg_5_
*1164 regb2_Q_reg_6_
*1165 regsum_U17
*1166 regsum_U16
*1167 regsum_U15
*1168 regsum_U14
*1169 regsum_U13
*1170 regsum_U12
*1171 regsum_U11
*1172 regsum_U10
*1173 regsum_U9
*1174 regsum_U8
*1175 regsum_U7
*1176 regsum_U6
*1177 regsum_U5
*1178 regsum_U4
*1179 regsum_Q_reg_0_
*1180 regsum_Q_reg_1_
*1181 regsum_Q_reg_2_
*1182 regsum_Q_reg_3_
*1183 regsum_Q_reg_4_
*1184 regsum_Q_reg_5_
*1185 regsum_Q_reg_6_
*1186 regY_U19
*1187 regY_U18
*1188 regY_U17
*1189 regY_U16
*1190 regY_U15
*1191 regY_U14
*1192 regY_U13
*1193 regY_U12
*1194 regY_U11
*1195 regY_U10
*1196 regY_U9
*1197 regY_U8
*1198 regY_U7
*1199 regY_U6
*1200 regY_U5
*1201 regY_U4
*1202 regY_Q_reg_0_
*1203 regY_Q_reg_1_
*1204 regY_Q_reg_2_
*1205 regY_Q_reg_3_
*1206 regY_Q_reg_4_
*1207 regY_Q_reg_5_
*1208 regY_Q_reg_6_
*1209 regY_Q_reg_7_
*1210 ff1_Q_reg
*1211 ff2_Q_reg
*1212 ff3_Q_reg
*1213 ff4_Q_reg
*1214 add_96_U2
*1215 add_96_U1
*1216 add_96_U1_1
*1217 add_96_U1_2
*1218 add_96_U1_3
*1219 add_96_U1_4
*1220 add_96_U1_5
*1221 add_96_U1_6
*1222 add_96_U1_7
*1223 add_90_U2
*1224 add_90_U1
*1225 add_90_U1_1
*1226 add_90_U1_2
*1227 add_90_U1_3
*1228 add_90_U1_4
*1229 add_90_U1_5
*1230 add_90_U1_6
*1231 add_60_U2
*1232 add_60_U1
*1233 add_60_U1_1
*1234 add_60_U1_2
*1235 add_60_U1_3
*1236 add_60_U1_4
*1237 add_60_U1_5
*1238 add_60_U1_6
*1239 add_60_U1_7
*1240 mult_85_U203
*1241 mult_85_U202
*1242 mult_85_U201
*1243 mult_85_U200
*1244 mult_85_U199
*1245 mult_85_U198
*1246 mult_85_U197
*1247 mult_85_U196
*1248 mult_85_U195
*1249 mult_85_U194
*1250 mult_85_U193
*1251 mult_85_U192
*1252 mult_85_U191
*1253 mult_85_U190
*1254 mult_85_U189
*1255 mult_85_U188
*1256 mult_85_U187
*1257 mult_85_U186
*1258 mult_85_U185
*1259 mult_85_U184
*1260 mult_85_U183
*1261 mult_85_U182
*1262 mult_85_U181
*1263 mult_85_U180
*1264 mult_85_U179
*1265 mult_85_U178
*1266 mult_85_U177
*1267 mult_85_U176
*1268 mult_85_U175
*1269 mult_85_U174
*1270 mult_85_U173
*1271 mult_85_U172
*1272 mult_85_U171
*1273 mult_85_U170
*1274 mult_85_U169
*1275 mult_85_U168
*1276 mult_85_U167
*1277 mult_85_U166
*1278 mult_85_U165
*1279 mult_85_U164
*1280 mult_85_U163
*1281 mult_85_U162
*1282 mult_85_U161
*1283 mult_85_U160
*1284 mult_85_U159
*1285 mult_85_U158
*1286 mult_85_U157
*1287 mult_85_U156
*1288 mult_85_U155
*1289 mult_85_U154
*1290 mult_85_U153
*1291 mult_85_U152
*1292 mult_85_U151
*1293 mult_85_U150
*1294 mult_85_U149
*1295 mult_85_U148
*1296 mult_85_U147
*1297 mult_85_U146
*1298 mult_85_U145
*1299 mult_85_U144
*1300 mult_85_U143
*1301 mult_85_U142
*1302 mult_85_U141
*1303 mult_85_U140
*1304 mult_85_U139
*1305 mult_85_U138
*1306 mult_85_U137
*1307 mult_85_U136
*1308 mult_85_U135
*1309 mult_85_U134
*1310 mult_85_U133
*1311 mult_85_U132
*1312 mult_85_U131
*1313 mult_85_U130
*1314 mult_85_U129
*1315 mult_85_U128
*1316 mult_85_U127
*1317 mult_85_U126
*1318 mult_85_U125
*1319 mult_85_U124
*1320 mult_85_U123
*1321 mult_85_U51
*1322 mult_85_U50
*1323 mult_85_U49
*1324 mult_85_U48
*1325 mult_85_U47
*1326 mult_85_U46
*1327 mult_85_U45
*1328 mult_85_U44
*1329 mult_85_U43
*1330 mult_85_U42
*1331 mult_85_U39
*1332 mult_85_U38
*1333 mult_85_U37
*1334 mult_85_U36
*1335 mult_85_U34
*1336 mult_85_U33
*1337 mult_85_U32
*1338 mult_85_U31
*1339 mult_85_U30
*1340 mult_85_U29
*1341 mult_85_U28
*1342 mult_85_U27
*1343 mult_85_U26
*1344 mult_85_U25
*1345 mult_85_U24
*1346 mult_85_U23
*1347 mult_85_U22
*1348 mult_85_U21
*1349 mult_85_U20
*1350 mult_85_U19
*1351 mult_85_U18
*1352 mult_85_U17
*1353 mult_85_U16
*1354 mult_85_U8
*1355 mult_85_U7
*1356 mult_85_U6
*1357 mult_85_U5
*1358 mult_85_U4
*1359 mult_85_U3
*1360 mult_78_U203
*1361 mult_78_U202
*1362 mult_78_U201
*1363 mult_78_U200
*1364 mult_78_U199
*1365 mult_78_U198
*1366 mult_78_U197
*1367 mult_78_U196
*1368 mult_78_U195
*1369 mult_78_U194
*1370 mult_78_U193
*1371 mult_78_U192
*1372 mult_78_U191
*1373 mult_78_U190
*1374 mult_78_U189
*1375 mult_78_U188
*1376 mult_78_U187
*1377 mult_78_U186
*1378 mult_78_U185
*1379 mult_78_U184
*1380 mult_78_U183
*1381 mult_78_U182
*1382 mult_78_U181
*1383 mult_78_U180
*1384 mult_78_U179
*1385 mult_78_U178
*1386 mult_78_U177
*1387 mult_78_U176
*1388 mult_78_U175
*1389 mult_78_U174
*1390 mult_78_U173
*1391 mult_78_U172
*1392 mult_78_U171
*1393 mult_78_U170
*1394 mult_78_U169
*1395 mult_78_U168
*1396 mult_78_U167
*1397 mult_78_U166
*1398 mult_78_U165
*1399 mult_78_U164
*1400 mult_78_U163
*1401 mult_78_U162
*1402 mult_78_U161
*1403 mult_78_U160
*1404 mult_78_U159
*1405 mult_78_U158
*1406 mult_78_U157
*1407 mult_78_U156
*1408 mult_78_U155
*1409 mult_78_U154
*1410 mult_78_U153
*1411 mult_78_U152
*1412 mult_78_U151
*1413 mult_78_U150
*1414 mult_78_U149
*1415 mult_78_U148
*1416 mult_78_U147
*1417 mult_78_U146
*1418 mult_78_U145
*1419 mult_78_U144
*1420 mult_78_U143
*1421 mult_78_U142
*1422 mult_78_U141
*1423 mult_78_U133
*1424 mult_78_U132
*1425 mult_78_U131
*1426 mult_78_U130
*1427 mult_78_U129
*1428 mult_78_U128
*1429 mult_78_U127
*1430 mult_78_U126
*1431 mult_78_U125
*1432 mult_78_U124
*1433 mult_78_U123
*1434 mult_78_U51
*1435 mult_78_U50
*1436 mult_78_U49
*1437 mult_78_U48
*1438 mult_78_U47
*1439 mult_78_U46
*1440 mult_78_U45
*1441 mult_78_U44
*1442 mult_78_U43
*1443 mult_78_U42
*1444 mult_78_U39
*1445 mult_78_U38
*1446 mult_78_U37
*1447 mult_78_U36
*1448 mult_78_U34
*1449 mult_78_U33
*1450 mult_78_U32
*1451 mult_78_U31
*1452 mult_78_U30
*1453 mult_78_U29
*1454 mult_78_U28
*1455 mult_78_U27
*1456 mult_78_U26
*1457 mult_78_U25
*1458 mult_78_U24
*1459 mult_78_U23
*1460 mult_78_U22
*1461 mult_78_U21
*1462 mult_78_U20
*1463 mult_78_U19
*1464 mult_78_U18
*1465 mult_78_U17
*1466 mult_78_U16
*1467 mult_78_U8
*1468 mult_78_U7
*1469 mult_78_U6
*1470 mult_78_U5
*1471 mult_78_U4
*1472 mult_78_U3
*1473 mult_73_U203
*1474 mult_73_U202
*1475 mult_73_U201
*1476 mult_73_U200
*1477 mult_73_U199
*1478 mult_73_U198
*1479 mult_73_U197
*1480 mult_73_U196
*1481 mult_73_U195
*1482 mult_73_U194
*1483 mult_73_U193
*1484 mult_73_U192
*1485 mult_73_U191
*1486 mult_73_U190
*1487 mult_73_U189
*1488 mult_73_U188
*1489 mult_73_U187
*1490 mult_73_U186
*1491 mult_73_U185
*1492 mult_73_U184
*1493 mult_73_U183
*1494 mult_73_U182
*1495 mult_73_U181
*1496 mult_73_U180
*1497 mult_73_U179
*1498 mult_73_U178
*1499 mult_73_U177
*1500 mult_73_U176
*1501 mult_73_U175
*1502 mult_73_U174
*1503 mult_73_U173
*1504 mult_73_U172
*1505 mult_73_U171
*1506 mult_73_U170
*1507 mult_73_U169
*1508 mult_73_U168
*1509 mult_73_U167
*1510 mult_73_U166
*1511 mult_73_U165
*1512 mult_73_U164
*1513 mult_73_U163
*1514 mult_73_U162
*1515 mult_73_U161
*1516 mult_73_U160
*1517 mult_73_U159
*1518 mult_73_U158
*1519 mult_73_U157
*1520 mult_73_U156
*1521 mult_73_U155
*1522 mult_73_U154
*1523 mult_73_U153
*1524 mult_73_U152
*1525 mult_73_U151
*1526 mult_73_U150
*1527 mult_73_U149
*1528 mult_73_U148
*1529 mult_73_U147
*1530 mult_73_U146
*1531 mult_73_U145
*1532 mult_73_U144
*1533 mult_73_U143
*1534 mult_73_U142
*1535 mult_73_U141
*1536 mult_73_U133
*1537 mult_73_U132
*1538 mult_73_U131
*1539 mult_73_U130
*1540 mult_73_U129
*1541 mult_73_U128
*1542 mult_73_U127
*1543 mult_73_U126
*1544 mult_73_U125
*1545 mult_73_U124
*1546 mult_73_U123
*1547 mult_73_U51
*1548 mult_73_U50
*1549 mult_73_U49
*1550 mult_73_U48
*1551 mult_73_U47
*1552 mult_73_U46
*1553 mult_73_U45
*1554 mult_73_U44
*1555 mult_73_U43
*1556 mult_73_U42
*1557 mult_73_U39
*1558 mult_73_U38
*1559 mult_73_U37
*1560 mult_73_U36
*1561 mult_73_U34
*1562 mult_73_U33
*1563 mult_73_U32
*1564 mult_73_U31
*1565 mult_73_U30
*1566 mult_73_U29
*1567 mult_73_U28
*1568 mult_73_U27
*1569 mult_73_U26
*1570 mult_73_U25
*1571 mult_73_U24
*1572 mult_73_U23
*1573 mult_73_U22
*1574 mult_73_U21
*1575 mult_73_U20
*1576 mult_73_U19
*1577 mult_73_U18
*1578 mult_73_U17
*1579 mult_73_U16
*1580 mult_73_U8
*1581 mult_73_U7
*1582 mult_73_U6
*1583 mult_73_U5
*1584 mult_73_U4
*1585 mult_73_U3
*1586 mult_68_U203
*1587 mult_68_U202
*1588 mult_68_U201
*1589 mult_68_U200
*1590 mult_68_U199
*1591 mult_68_U198
*1592 mult_68_U197
*1593 mult_68_U196
*1594 mult_68_U195
*1595 mult_68_U194
*1596 mult_68_U193
*1597 mult_68_U192
*1598 mult_68_U191
*1599 mult_68_U190
*1600 mult_68_U189
*1601 mult_68_U188
*1602 mult_68_U187
*1603 mult_68_U186
*1604 mult_68_U185
*1605 mult_68_U184
*1606 mult_68_U183
*1607 mult_68_U182
*1608 mult_68_U181
*1609 mult_68_U180
*1610 mult_68_U179
*1611 mult_68_U178
*1612 mult_68_U177
*1613 mult_68_U176
*1614 mult_68_U175
*1615 mult_68_U174
*1616 mult_68_U173
*1617 mult_68_U172
*1618 mult_68_U171
*1619 mult_68_U170
*1620 mult_68_U169
*1621 mult_68_U168
*1622 mult_68_U167
*1623 mult_68_U166
*1624 mult_68_U165
*1625 mult_68_U164
*1626 mult_68_U163
*1627 mult_68_U162
*1628 mult_68_U161
*1629 mult_68_U160
*1630 mult_68_U159
*1631 mult_68_U158
*1632 mult_68_U157
*1633 mult_68_U156
*1634 mult_68_U155
*1635 mult_68_U154
*1636 mult_68_U153
*1637 mult_68_U152
*1638 mult_68_U151
*1639 mult_68_U150
*1640 mult_68_U149
*1641 mult_68_U148
*1642 mult_68_U147
*1643 mult_68_U146
*1644 mult_68_U145
*1645 mult_68_U144
*1646 mult_68_U143
*1647 mult_68_U142
*1648 mult_68_U141
*1649 mult_68_U133
*1650 mult_68_U132
*1651 mult_68_U131
*1652 mult_68_U130
*1653 mult_68_U129
*1654 mult_68_U128
*1655 mult_68_U127
*1656 mult_68_U126
*1657 mult_68_U125
*1658 mult_68_U124
*1659 mult_68_U123
*1660 mult_68_U51
*1661 mult_68_U50
*1662 mult_68_U49
*1663 mult_68_U48
*1664 mult_68_U47
*1665 mult_68_U46
*1666 mult_68_U45
*1667 mult_68_U44
*1668 mult_68_U43
*1669 mult_68_U42
*1670 mult_68_U39
*1671 mult_68_U38
*1672 mult_68_U37
*1673 mult_68_U36
*1674 mult_68_U34
*1675 mult_68_U33
*1676 mult_68_U32
*1677 mult_68_U31
*1678 mult_68_U30
*1679 mult_68_U29
*1680 mult_68_U28
*1681 mult_68_U27
*1682 mult_68_U26
*1683 mult_68_U25
*1684 mult_68_U24
*1685 mult_68_U23
*1686 mult_68_U22
*1687 mult_68_U21
*1688 mult_68_U20
*1689 mult_68_U19
*1690 mult_68_U18
*1691 mult_68_U17
*1692 mult_68_U16
*1693 mult_68_U8
*1694 mult_68_U7
*1695 mult_68_U6
*1696 mult_68_U5
*1697 mult_68_U4
*1698 mult_68_U3


*PORTS

*78 I *C 0 0
*79 I *C 0 0
*10 I *C 0 0
*11 I *C 0 0
*12 I *C 0 0
*13 I *C 0 0
*14 I *C 0 0
*15 I *C 0 0
*16 I *C 0 0
*17 I *C 0 0
*18 I *C 0 0
*19 I *C 0 0
*20 I *C 0 0
*21 I *C 0 0
*80 I *C 0 0
*22 I *C 0 0
*23 I *C 0 0
*24 I *C 0 0
*25 I *C 0 0
*26 I *C 0 0
*27 I *C 0 0
*28 I *C 0 0
*29 I *C 0 0
*30 I *C 0 0
*31 I *C 0 0
*32 I *C 0 0
*33 I *C 0 0
*34 I *C 0 0
*35 I *C 0 0
*36 I *C 0 0
*37 I *C 0 0
*38 I *C 0 0
*39 I *C 0 0
*40 I *C 0 0
*41 I *C 0 0
*42 I *C 0 0
*43 I *C 0 0
*44 I *C 0 0
*45 I *C 0 0
*46 I *C 0 0