*SPEF "IEEE 1481-1998"
*DESIGN "IIR_filter"
*DATE "Wed Nov 17 18:15:01 2021"
*VENDOR "Cadence Design Systems, Inc."
*PROGRAM "Innovus"
*VERSION "17.11-s080_1"
*DESIGN_FLOW "COUPLING C" "PIN_CAP NONE" "NAME_SCOPE LOCAL"
*DIVIDER /
*DELIMITER :
*BUS_DELIMITER []
*T_UNIT 1 NS
*C_UNIT 1 PF
*R_UNIT 1 OHM
*L_UNIT 1 HENRY

// MMMC spef file for corner 'my_rc'

*NAME_MAP

*1 CLK
*2 RST_n
*3 DIN[11]
*4 DIN[10]
*5 DIN[9]
*6 DIN[8]
*7 DIN[7]
*8 DIN[6]
*9 DIN[5]
*10 DIN[4]
*11 DIN[3]
*12 DIN[2]
*13 DIN[1]
*14 DIN[0]
*15 VIN
*16 b0[11]
*17 b0[10]
*18 b0[9]
*19 b0[8]
*20 b0[7]
*21 b0[6]
*22 b0[5]
*23 b0[4]
*24 b0[3]
*25 b0[2]
*26 b0[1]
*27 b0[0]
*28 b1[11]
*29 b1[10]
*30 b1[9]
*31 b1[8]
*32 b1[7]
*33 b1[6]
*34 b1[5]
*35 b1[4]
*36 b1[3]
*37 b1[2]
*38 b1[1]
*39 b1[0]
*40 a1[11]
*41 a1[10]
*42 a1[9]
*43 a1[8]
*44 a1[7]
*45 a1[6]
*46 a1[5]
*47 a1[4]
*48 a1[3]
*49 a1[2]
*50 a1[1]
*51 a1[0]
*52 DOUT[11]
*53 DOUT[10]
*54 DOUT[9]
*55 DOUT[8]
*56 DOUT[7]
*57 DOUT[6]
*58 DOUT[5]
*59 DOUT[4]
*60 VOUT
*61 FE_OFN0_q1
*62 FE_DBTN6_u_del_vec_0
*63 FE_DBTN5_u_del_vec_1
*64 FE_DBTN4_u_del_vec_2
*65 FE_DBTN3_u_del_vec_3
*66 FE_DBTN2_u_del_vec_4
*67 FE_DBTN1_u_del_vec_5
*68 FE_DBTN0_u_del_vec_6
*69 q1
*70 regX0_n21
*71 regX0_n20
*72 regX0_n19
*73 regX0_n18
*74 regX0_n17
*75 regX0_n16
*76 regX0_n15
*77 regX0_n14
*78 regX0_n13
*79 regX0_n12
*80 regX0_n11
*81 regX0_n10
*82 regX0_n9
*83 regX0_n8
*84 regX0_n7
*85 regX0_n6
*86 regX0_n5
*87 regX0_n4
*88 regX0_n3
*89 regX0_n2
*90 regX0_n1
*91 regU_n24
*92 regU_n23
*93 regU_n22
*94 regU_n21
*95 regU_n20
*96 regU_n19
*97 regU_n18
*98 regU_n17
*99 regU_n16
*100 regU_n15
*101 regU_n14
*102 regU_n13
*103 regU_n12
*104 regU_n11
*105 regU_n10
*106 regU_n9
*107 regU_n8
*108 regU_n7
*109 regU_n6
*110 regU_n5
*111 regU_n4
*112 regU_n3
*113 regU_n2
*114 regU_n1
*115 regY_n50
*116 regY_n49
*117 regY_n48
*118 regY_n47
*119 regY_n46
*120 regY_n45
*121 regY_n44
*122 regY_n43
*123 regY_n42
*124 regY_n41
*125 regY_n40
*126 regY_n39
*127 regY_n38
*128 regY_n37
*129 regY_n36
*130 regY_n35
*131 regY_n34
*132 regY_n33
*133 regY_n32
*134 regY_n31
*135 regY_n30
*136 regY_n29
*137 regY_n28
*138 regY_n27
*139 add_72_n2
*140 add_56_n1
*141 mult_64_n208
*142 mult_64_n207
*143 mult_64_n206
*144 mult_64_n205
*145 mult_64_n204
*146 mult_64_n203
*147 mult_64_n202
*148 mult_64_n201
*149 mult_64_n200
*150 mult_64_n199
*151 mult_64_n198
*152 mult_64_n197
*153 mult_64_n196
*154 mult_64_n195
*155 mult_64_n194
*156 mult_64_n193
*157 mult_64_n192
*158 mult_64_n191
*159 mult_64_n188
*160 mult_64_n186
*161 mult_64_n184
*162 mult_64_n183
*163 mult_64_n180
*164 mult_64_n136
*165 mult_64_n135
*166 mult_64_n134
*167 mult_64_n133
*168 mult_64_n131
*169 mult_64_n129
*170 mult_64_n128
*171 mult_64_n127
*172 mult_64_n126
*173 mult_64_n125
*174 mult_64_n124
*175 mult_64_n123
*176 mult_64_n121
*177 mult_64_n120
*178 mult_64_n119
*179 mult_64_n118
*180 mult_64_n117
*181 mult_64_n116
*182 mult_64_n115
*183 mult_64_n114
*184 mult_64_n113
*185 mult_64_n112
*186 mult_64_n111
*187 mult_64_n110
*188 mult_64_n109
*189 mult_64_n108
*190 mult_64_n107
*191 mult_64_n106
*192 mult_64_n105
*193 mult_64_n103
*194 mult_64_n102
*195 mult_64_n101
*196 mult_64_n100
*197 mult_64_n99
*198 mult_64_n98
*199 mult_64_n97
*200 mult_64_n96
*201 mult_64_n95
*202 mult_64_n94
*203 mult_64_n93
*204 mult_64_n91
*205 mult_64_n90
*206 mult_64_n89
*207 mult_64_n88
*208 mult_64_n87
*209 mult_64_n86
*210 mult_64_n84
*211 mult_64_n83
*212 mult_64_n82
*213 mult_64_n81
*214 mult_64_n80
*215 mult_64_n79
*216 mult_64_n78
*217 mult_64_n77
*218 mult_64_n76
*219 mult_64_n75
*220 mult_64_n74
*221 mult_64_n73
*222 mult_64_n72
*223 mult_64_n71
*224 mult_64_n70
*225 mult_64_n69
*226 mult_64_n68
*227 mult_64_n67
*228 mult_64_n66
*229 mult_64_n65
*230 mult_64_n64
*231 mult_64_n63
*232 mult_64_n62
*233 mult_64_n61
*234 mult_64_n60
*235 mult_64_n59
*236 mult_64_n58
*237 mult_64_n57
*238 mult_64_n56
*239 mult_64_n55
*240 mult_64_n54
*241 mult_64_n52
*242 mult_64_n51
*243 mult_64_n50
*244 mult_64_n49
*245 mult_64_n48
*246 mult_64_n47
*247 mult_64_n46
*248 mult_64_n45
*249 mult_64_n44
*250 mult_64_n43
*251 mult_64_n42
*252 mult_64_n41
*253 mult_64_n40
*254 mult_64_n39
*255 mult_64_n38
*256 mult_64_n37
*257 mult_64_n36
*258 mult_64_n35
*259 mult_64_n34
*260 mult_64_n33
*261 mult_64_n32
*262 mult_64_n31
*263 mult_64_n30
*264 mult_64_n29
*265 mult_64_n28
*266 mult_64_n27
*267 mult_64_n26
*268 mult_64_n25
*269 mult_64_n24
*270 mult_64_n23
*271 mult_64_n22
*272 mult_64_n21
*273 mult_64_n20
*274 mult_64_n19
*275 mult_64_n18
*276 mult_64_n17
*277 mult_64_n16
*278 mult_64_n15
*279 mult_64_n8
*280 mult_64_n7
*281 mult_64_n6
*282 mult_64_n5
*283 mult_64_n4
*284 mult_64_n3
*285 mult_64_n2
*286 mult_68_n208
*287 mult_68_n207
*288 mult_68_n206
*289 mult_68_n205
*290 mult_68_n204
*291 mult_68_n203
*292 mult_68_n202
*293 mult_68_n201
*294 mult_68_n200
*295 mult_68_n199
*296 mult_68_n198
*297 mult_68_n197
*298 mult_68_n196
*299 mult_68_n195
*300 mult_68_n194
*301 mult_68_n193
*302 mult_68_n192
*303 mult_68_n191
*304 mult_68_n188
*305 mult_68_n186
*306 mult_68_n184
*307 mult_68_n183
*308 mult_68_n180
*309 mult_68_n136
*310 mult_68_n135
*311 mult_68_n134
*312 mult_68_n133
*313 mult_68_n131
*314 mult_68_n129
*315 mult_68_n128
*316 mult_68_n127
*317 mult_68_n126
*318 mult_68_n125
*319 mult_68_n124
*320 mult_68_n123
*321 mult_68_n121
*322 mult_68_n120
*323 mult_68_n119
*324 mult_68_n118
*325 mult_68_n117
*326 mult_68_n116
*327 mult_68_n115
*328 mult_68_n114
*329 mult_68_n113
*330 mult_68_n112
*331 mult_68_n111
*332 mult_68_n110
*333 mult_68_n109
*334 mult_68_n108
*335 mult_68_n107
*336 mult_68_n106
*337 mult_68_n105
*338 mult_68_n103
*339 mult_68_n102
*340 mult_68_n101
*341 mult_68_n100
*342 mult_68_n99
*343 mult_68_n98
*344 mult_68_n97
*345 mult_68_n96
*346 mult_68_n95
*347 mult_68_n94
*348 mult_68_n93
*349 mult_68_n91
*350 mult_68_n90
*351 mult_68_n89
*352 mult_68_n88
*353 mult_68_n87
*354 mult_68_n86
*355 mult_68_n84
*356 mult_68_n83
*357 mult_68_n82
*358 mult_68_n81
*359 mult_68_n80
*360 mult_68_n79
*361 mult_68_n78
*362 mult_68_n77
*363 mult_68_n76
*364 mult_68_n75
*365 mult_68_n74
*366 mult_68_n73
*367 mult_68_n72
*368 mult_68_n71
*369 mult_68_n70
*370 mult_68_n69
*371 mult_68_n68
*372 mult_68_n67
*373 mult_68_n66
*374 mult_68_n65
*375 mult_68_n64
*376 mult_68_n63
*377 mult_68_n62
*378 mult_68_n61
*379 mult_68_n60
*380 mult_68_n59
*381 mult_68_n58
*382 mult_68_n57
*383 mult_68_n56
*384 mult_68_n55
*385 mult_68_n54
*386 mult_68_n52
*387 mult_68_n51
*388 mult_68_n50
*389 mult_68_n49
*390 mult_68_n48
*391 mult_68_n47
*392 mult_68_n46
*393 mult_68_n45
*394 mult_68_n44
*395 mult_68_n43
*396 mult_68_n42
*397 mult_68_n41
*398 mult_68_n40
*399 mult_68_n39
*400 mult_68_n38
*401 mult_68_n37
*402 mult_68_n36
*403 mult_68_n35
*404 mult_68_n34
*405 mult_68_n33
*406 mult_68_n32
*407 mult_68_n31
*408 mult_68_n30
*409 mult_68_n29
*410 mult_68_n28
*411 mult_68_n27
*412 mult_68_n26
*413 mult_68_n25
*414 mult_68_n24
*415 mult_68_n23
*416 mult_68_n22
*417 mult_68_n21
*418 mult_68_n20
*419 mult_68_n19
*420 mult_68_n18
*421 mult_68_n17
*422 mult_68_n16
*423 mult_68_n15
*424 mult_68_n8
*425 mult_68_n7
*426 mult_68_n6
*427 mult_68_n5
*428 mult_68_n4
*429 mult_68_n3
*430 mult_68_n2
*431 mult_66_n208
*432 mult_66_n207
*433 mult_66_n206
*434 mult_66_n205
*435 mult_66_n204
*436 mult_66_n203
*437 mult_66_n202
*438 mult_66_n201
*439 mult_66_n200
*440 mult_66_n199
*441 mult_66_n198
*442 mult_66_n197
*443 mult_66_n196
*444 mult_66_n195
*445 mult_66_n194
*446 mult_66_n193
*447 mult_66_n192
*448 mult_66_n191
*449 mult_66_n190
*450 mult_66_n189
*451 mult_66_n188
*452 mult_66_n187
*453 mult_66_n186
*454 mult_66_n185
*455 mult_66_n184
*456 mult_66_n183
*457 mult_66_n182
*458 mult_66_n181
*459 mult_66_n180
*460 mult_66_n179
*461 mult_66_n136
*462 mult_66_n135
*463 mult_66_n134
*464 mult_66_n133
*465 mult_66_n131
*466 mult_66_n129
*467 mult_66_n128
*468 mult_66_n127
*469 mult_66_n126
*470 mult_66_n125
*471 mult_66_n124
*472 mult_66_n123
*473 mult_66_n121
*474 mult_66_n120
*475 mult_66_n119
*476 mult_66_n118
*477 mult_66_n117
*478 mult_66_n116
*479 mult_66_n115
*480 mult_66_n114
*481 mult_66_n113
*482 mult_66_n112
*483 mult_66_n111
*484 mult_66_n110
*485 mult_66_n109
*486 mult_66_n108
*487 mult_66_n107
*488 mult_66_n106
*489 mult_66_n105
*490 mult_66_n103
*491 mult_66_n102
*492 mult_66_n101
*493 mult_66_n100
*494 mult_66_n99
*495 mult_66_n98
*496 mult_66_n97
*497 mult_66_n96
*498 mult_66_n95
*499 mult_66_n94
*500 mult_66_n93
*501 mult_66_n91
*502 mult_66_n90
*503 mult_66_n89
*504 mult_66_n88
*505 mult_66_n87
*506 mult_66_n86
*507 mult_66_n84
*508 mult_66_n83
*509 mult_66_n82
*510 mult_66_n81
*511 mult_66_n80
*512 mult_66_n79
*513 mult_66_n78
*514 mult_66_n77
*515 mult_66_n76
*516 mult_66_n75
*517 mult_66_n74
*518 mult_66_n73
*519 mult_66_n72
*520 mult_66_n71
*521 mult_66_n70
*522 mult_66_n69
*523 mult_66_n68
*524 mult_66_n67
*525 mult_66_n66
*526 mult_66_n65
*527 mult_66_n64
*528 mult_66_n63
*529 mult_66_n62
*530 mult_66_n61
*531 mult_66_n60
*532 mult_66_n59
*533 mult_66_n58
*534 mult_66_n57
*535 mult_66_n56
*536 mult_66_n55
*537 mult_66_n54
*538 mult_66_n52
*539 mult_66_n51
*540 mult_66_n50
*541 mult_66_n49
*542 mult_66_n48
*543 mult_66_n47
*544 mult_66_n46
*545 mult_66_n45
*546 mult_66_n44
*547 mult_66_n43
*548 mult_66_n42
*549 mult_66_n41
*550 mult_66_n40
*551 mult_66_n39
*552 mult_66_n38
*553 mult_66_n37
*554 mult_66_n36
*555 mult_66_n35
*556 mult_66_n34
*557 mult_66_n33
*558 mult_66_n32
*559 mult_66_n31
*560 mult_66_n30
*561 mult_66_n29
*562 mult_66_n28
*563 mult_66_n27
*564 mult_66_n26
*565 mult_66_n25
*566 mult_66_n24
*567 mult_66_n23
*568 mult_66_n22
*569 mult_66_n21
*570 mult_66_n20
*571 mult_66_n19
*572 mult_66_n18
*573 mult_66_n17
*574 mult_66_n16
*575 mult_66_n15
*576 mult_66_n8
*577 mult_66_n7
*578 mult_66_n6
*579 mult_66_n5
*580 mult_66_n4
*581 mult_66_n3
*582 mult_66_n2
*583 din_del[6]
*584 din_del[5]
*585 din_del[4]
*586 din_del[3]
*587 din_del[2]
*588 din_del[1]
*589 din_del[0]
*590 u[7]
*591 u[6]
*592 u[5]
*593 u[4]
*594 u[3]
*595 u[2]
*596 u[1]
*597 u[0]
*598 u_del_vec[7]
*599 u_del_vec[6]
*600 u_del_vec[5]
*601 u_del_vec[4]
*602 u_del_vec[3]
*603 u_del_vec[2]
*604 u_del_vec[1]
*605 u_del_vec[0]
*606 mula1[12]
*607 mula1[11]
*608 mula1[10]
*609 mula1[9]
*610 mula1[8]
*611 mula1[7]
*612 mula1[6]
*613 mulb0[12]
*614 mulb0[11]
*615 mulb0[10]
*616 mulb0[9]
*617 mulb0[8]
*618 mulb0[7]
*619 mulb0[6]
*620 mulb1[12]
*621 mulb1[11]
*622 mulb1[10]
*623 mulb1[9]
*624 mulb1[8]
*625 mulb1[7]
*626 mulb1[6]
*627 y[7]
*628 y[6]
*629 y[5]
*630 y[4]
*631 y[3]
*632 y[2]
*633 y[1]
*634 y[0]
*635 add_72_carry[7]
*636 add_72_carry[6]
*637 add_72_carry[5]
*638 add_72_carry[4]
*639 add_72_carry[3]
*640 add_72_carry[2]
*641 add_56_carry[7]
*642 add_56_carry[6]
*643 add_56_carry[5]
*644 add_56_carry[4]
*645 add_56_carry[3]
*646 add_56_carry[2]
*647 DOUT[3]
*648 DOUT[2]
*649 DOUT[1]
*650 DOUT[0]
*651 FE_OFC0_q1
*652 FE_DBTC6_u_del_vec_0
*653 FE_DBTC5_u_del_vec_1
*654 FE_DBTC4_u_del_vec_2
*655 FE_DBTC3_u_del_vec_3
*656 FE_DBTC2_u_del_vec_4
*657 FE_DBTC1_u_del_vec_5
*658 FE_DBTC0_u_del_vec_6
*659 regX0_U15
*660 regX0_U14
*661 regX0_U13
*662 regX0_U12
*663 regX0_U11
*664 regX0_U10
*665 regX0_U9
*666 regX0_U8
*667 regX0_U7
*668 regX0_U6
*669 regX0_U5
*670 regX0_U4
*671 regX0_U3
*672 regX0_U2
*673 regX0_Q_reg_0_
*674 regX0_Q_reg_1_
*675 regX0_Q_reg_2_
*676 regX0_Q_reg_3_
*677 regX0_Q_reg_4_
*678 regX0_Q_reg_5_
*679 regX0_Q_reg_6_
*680 regU_U17
*681 regU_U16
*682 regU_U15
*683 regU_U14
*684 regU_U13
*685 regU_U12
*686 regU_U11
*687 regU_U10
*688 regU_U9
*689 regU_U8
*690 regU_U7
*691 regU_U6
*692 regU_U5
*693 regU_U4
*694 regU_U3
*695 regU_U2
*696 regU_Q_reg_0_
*697 regU_Q_reg_1_
*698 regU_Q_reg_2_
*699 regU_Q_reg_3_
*700 regU_Q_reg_4_
*701 regU_Q_reg_5_
*702 regU_Q_reg_6_
*703 regU_Q_reg_7_
*704 regY_U17
*705 regY_U16
*706 regY_U15
*707 regY_U14
*708 regY_U13
*709 regY_U12
*710 regY_U11
*711 regY_U10
*712 regY_U9
*713 regY_U8
*714 regY_U7
*715 regY_U6
*716 regY_U5
*717 regY_U4
*718 regY_U3
*719 regY_U2
*720 regY_Q_reg_0_
*721 regY_Q_reg_1_
*722 regY_Q_reg_2_
*723 regY_Q_reg_3_
*724 regY_Q_reg_4_
*725 regY_Q_reg_5_
*726 regY_Q_reg_6_
*727 regY_Q_reg_7_
*728 ff1_Q_reg
*729 ff2_Q_reg
*730 add_72_U2
*731 add_72_U1
*732 add_72_U1_1
*733 add_72_U1_2
*734 add_72_U1_3
*735 add_72_U1_4
*736 add_72_U1_5
*737 add_72_U1_6
*738 add_72_U1_7
*739 add_56_U2
*740 add_56_U1
*741 add_56_U1_1
*742 add_56_U1_2
*743 add_56_U1_3
*744 add_56_U1_4
*745 add_56_U1_5
*746 add_56_U1_6
*747 add_56_U1_7
*748 mult_64_U203
*749 mult_64_U202
*750 mult_64_U201
*751 mult_64_U200
*752 mult_64_U199
*753 mult_64_U198
*754 mult_64_U197
*755 mult_64_U196
*756 mult_64_U195
*757 mult_64_U194
*758 mult_64_U193
*759 mult_64_U192
*760 mult_64_U191
*761 mult_64_U190
*762 mult_64_U189
*763 mult_64_U188
*764 mult_64_U187
*765 mult_64_U186
*766 mult_64_U185
*767 mult_64_U184
*768 mult_64_U183
*769 mult_64_U182
*770 mult_64_U181
*771 mult_64_U180
*772 mult_64_U179
*773 mult_64_U178
*774 mult_64_U177
*775 mult_64_U176
*776 mult_64_U175
*777 mult_64_U174
*778 mult_64_U173
*779 mult_64_U172
*780 mult_64_U171
*781 mult_64_U170
*782 mult_64_U169
*783 mult_64_U168
*784 mult_64_U167
*785 mult_64_U166
*786 mult_64_U165
*787 mult_64_U164
*788 mult_64_U163
*789 mult_64_U162
*790 mult_64_U161
*791 mult_64_U160
*792 mult_64_U159
*793 mult_64_U158
*794 mult_64_U157
*795 mult_64_U156
*796 mult_64_U155
*797 mult_64_U154
*798 mult_64_U153
*799 mult_64_U152
*800 mult_64_U151
*801 mult_64_U150
*802 mult_64_U149
*803 mult_64_U148
*804 mult_64_U147
*805 mult_64_U146
*806 mult_64_U145
*807 mult_64_U144
*808 mult_64_U143
*809 mult_64_U142
*810 mult_64_U141
*811 mult_64_U140
*812 mult_64_U136
*813 mult_64_U135
*814 mult_64_U130
*815 mult_64_U129
*816 mult_64_U128
*817 mult_64_U127
*818 mult_64_U126
*819 mult_64_U125
*820 mult_64_U124
*821 mult_64_U123
*822 mult_64_U51
*823 mult_64_U50
*824 mult_64_U49
*825 mult_64_U48
*826 mult_64_U47
*827 mult_64_U46
*828 mult_64_U45
*829 mult_64_U44
*830 mult_64_U43
*831 mult_64_U42
*832 mult_64_U39
*833 mult_64_U38
*834 mult_64_U37
*835 mult_64_U36
*836 mult_64_U34
*837 mult_64_U33
*838 mult_64_U32
*839 mult_64_U31
*840 mult_64_U30
*841 mult_64_U29
*842 mult_64_U28
*843 mult_64_U27
*844 mult_64_U26
*845 mult_64_U25
*846 mult_64_U24
*847 mult_64_U23
*848 mult_64_U22
*849 mult_64_U21
*850 mult_64_U20
*851 mult_64_U19
*852 mult_64_U18
*853 mult_64_U17
*854 mult_64_U16
*855 mult_64_U8
*856 mult_64_U7
*857 mult_64_U6
*858 mult_64_U5
*859 mult_64_U4
*860 mult_64_U3
*861 mult_68_U203
*862 mult_68_U202
*863 mult_68_U201
*864 mult_68_U200
*865 mult_68_U199
*866 mult_68_U198
*867 mult_68_U197
*868 mult_68_U196
*869 mult_68_U195
*870 mult_68_U194
*871 mult_68_U193
*872 mult_68_U192
*873 mult_68_U191
*874 mult_68_U190
*875 mult_68_U189
*876 mult_68_U188
*877 mult_68_U187
*878 mult_68_U186
*879 mult_68_U185
*880 mult_68_U184
*881 mult_68_U183
*882 mult_68_U182
*883 mult_68_U181
*884 mult_68_U180
*885 mult_68_U179
*886 mult_68_U178
*887 mult_68_U177
*888 mult_68_U176
*889 mult_68_U175
*890 mult_68_U174
*891 mult_68_U173
*892 mult_68_U172
*893 mult_68_U171
*894 mult_68_U170
*895 mult_68_U169
*896 mult_68_U168
*897 mult_68_U167
*898 mult_68_U166
*899 mult_68_U165
*900 mult_68_U164
*901 mult_68_U163
*902 mult_68_U162
*903 mult_68_U161
*904 mult_68_U160
*905 mult_68_U159
*906 mult_68_U158
*907 mult_68_U157
*908 mult_68_U156
*909 mult_68_U155
*910 mult_68_U154
*911 mult_68_U153
*912 mult_68_U152
*913 mult_68_U151
*914 mult_68_U150
*915 mult_68_U149
*916 mult_68_U148
*917 mult_68_U147
*918 mult_68_U146
*919 mult_68_U145
*920 mult_68_U144
*921 mult_68_U143
*922 mult_68_U142
*923 mult_68_U141
*924 mult_68_U136
*925 mult_68_U133
*926 mult_68_U132
*927 mult_68_U130
*928 mult_68_U129
*929 mult_68_U128
*930 mult_68_U127
*931 mult_68_U126
*932 mult_68_U125
*933 mult_68_U124
*934 mult_68_U123
*935 mult_68_U51
*936 mult_68_U50
*937 mult_68_U49
*938 mult_68_U48
*939 mult_68_U47
*940 mult_68_U46
*941 mult_68_U45
*942 mult_68_U44
*943 mult_68_U43
*944 mult_68_U42
*945 mult_68_U39
*946 mult_68_U38
*947 mult_68_U37
*948 mult_68_U36
*949 mult_68_U34
*950 mult_68_U33
*951 mult_68_U32
*952 mult_68_U31
*953 mult_68_U30
*954 mult_68_U29
*955 mult_68_U28
*956 mult_68_U27
*957 mult_68_U26
*958 mult_68_U25
*959 mult_68_U24
*960 mult_68_U23
*961 mult_68_U22
*962 mult_68_U21
*963 mult_68_U20
*964 mult_68_U19
*965 mult_68_U18
*966 mult_68_U17
*967 mult_68_U16
*968 mult_68_U8
*969 mult_68_U7
*970 mult_68_U6
*971 mult_68_U5
*972 mult_68_U4
*973 mult_68_U3
*974 mult_66_U203
*975 mult_66_U202
*976 mult_66_U201
*977 mult_66_U200
*978 mult_66_U199
*979 mult_66_U198
*980 mult_66_U197
*981 mult_66_U196
*982 mult_66_U195
*983 mult_66_U194
*984 mult_66_U193
*985 mult_66_U192
*986 mult_66_U191
*987 mult_66_U190
*988 mult_66_U189
*989 mult_66_U188
*990 mult_66_U187
*991 mult_66_U186
*992 mult_66_U185
*993 mult_66_U184
*994 mult_66_U183
*995 mult_66_U182
*996 mult_66_U181
*997 mult_66_U180
*998 mult_66_U179
*999 mult_66_U178
*1000 mult_66_U177
*1001 mult_66_U176
*1002 mult_66_U175
*1003 mult_66_U174
*1004 mult_66_U173
*1005 mult_66_U172
*1006 mult_66_U171
*1007 mult_66_U170
*1008 mult_66_U169
*1009 mult_66_U168
*1010 mult_66_U167
*1011 mult_66_U166
*1012 mult_66_U165
*1013 mult_66_U164
*1014 mult_66_U163
*1015 mult_66_U162
*1016 mult_66_U161
*1017 mult_66_U160
*1018 mult_66_U159
*1019 mult_66_U158
*1020 mult_66_U157
*1021 mult_66_U156
*1022 mult_66_U155
*1023 mult_66_U154
*1024 mult_66_U153
*1025 mult_66_U152
*1026 mult_66_U151
*1027 mult_66_U150
*1028 mult_66_U149
*1029 mult_66_U148
*1030 mult_66_U147
*1031 mult_66_U146
*1032 mult_66_U145
*1033 mult_66_U144
*1034 mult_66_U143
*1035 mult_66_U142
*1036 mult_66_U141
*1037 mult_66_U140
*1038 mult_66_U139
*1039 mult_66_U138
*1040 mult_66_U137
*1041 mult_66_U136
*1042 mult_66_U135
*1043 mult_66_U134
*1044 mult_66_U133
*1045 mult_66_U132
*1046 mult_66_U131
*1047 mult_66_U130
*1048 mult_66_U129
*1049 mult_66_U128
*1050 mult_66_U127
*1051 mult_66_U126
*1052 mult_66_U125
*1053 mult_66_U124
*1054 mult_66_U123
*1055 mult_66_U51
*1056 mult_66_U50
*1057 mult_66_U49
*1058 mult_66_U48
*1059 mult_66_U47
*1060 mult_66_U46
*1061 mult_66_U45
*1062 mult_66_U44
*1063 mult_66_U43
*1064 mult_66_U42
*1065 mult_66_U39
*1066 mult_66_U38
*1067 mult_66_U37
*1068 mult_66_U36
*1069 mult_66_U34
*1070 mult_66_U33
*1071 mult_66_U32
*1072 mult_66_U31
*1073 mult_66_U30
*1074 mult_66_U29
*1075 mult_66_U28
*1076 mult_66_U27
*1077 mult_66_U26
*1078 mult_66_U25
*1079 mult_66_U24
*1080 mult_66_U23
*1081 mult_66_U22
*1082 mult_66_U21
*1083 mult_66_U20
*1084 mult_66_U19
*1085 mult_66_U18
*1086 mult_66_U17
*1087 mult_66_U16
*1088 mult_66_U8
*1089 mult_66_U7
*1090 mult_66_U6
*1091 mult_66_U5
*1092 mult_66_U4
*1093 mult_66_U3


*PORTS

*1 I *C 0 22.47
*2 I *C 0 22.75
*3 I *C 19.285 49.28
*4 I *C 23.655 49.28
*5 I *C 17.005 49.28
*6 I *C 18.145 49.28
*7 I *C 22.325 49.28
*8 I *C 27.265 49.28
*9 I *C 20.045 49.28
*10 I *C 24.985 49.28
*11 I *C 24.985 0
*12 I *C 25.105 49.28
*13 I *C 25.105 49.28
*14 I *C 25.105 0
*15 I *C 20.995 49.28
*16 I *C 0 22.05
*17 I *C 0 23.59
*18 I *C 0 22.19
*19 I *C 0 19.53
*20 I *C 0 20.37
*21 I *C 0 24.57
*22 I *C 0 29.61
*23 I *C 0 24.71
*24 I *C 49.97 24.71
*25 I *C 49.97 24.71
*26 I *C 24.545 49.28
*27 I *C 24.545 49.28
*28 I *C 49.97 22.75
*29 I *C 27.835 0
*30 I *C 49.97 20.23
*31 I *C 28.215 0
*32 I *C 29.925 0
*33 I *C 34.675 0
*34 I *C 49.97 21.49
*35 I *C 24.545 0
*36 I *C 24.545 0
*37 I *C 0 24.85
*38 I *C 0 24.43
*39 I *C 49.97 24.43
*40 I *C 49.97 24.43
*41 I *C 49.97 26.39
*42 I *C 49.97 27.09
*43 I *C 49.97 28.77
*44 I *C 31.635 49.28
*45 I *C 35.435 49.28
*46 I *C 49.97 25.55
*47 I *C 25.365 0
*48 I *C 25.385 49.28
*49 I *C 25.385 49.28
*50 I *C 25.385 0
*51 I *C 25.385 0
*52 O *C 0 9.03
*53 O *C 0 6.23
*54 O *C 10.545 0
*55 O *C 10.165 0
*56 O *C 15.105 0
*57 O *C 17.765 0
*58 O *C 19.665 0
*59 O *C 27.455 0
*647 O *C 25.105 0
*648 O *C 24.605 49.28
*649 O *C 25.365 49.28
*650 O *C 24.605 0
*60 O *C 20.615 49.28


*D_NET *1 0.00985634

*CONN
*P *1 I *C 0 22.47 *L 0
*I *729:CK I *C 17.275 34.02 *L 0.000977 *D DFFR_X1
*I *728:CK I *C 19.745 32.06 *L 0.000977 *D DFFR_X1
*I *727:CK I *C 9.325 8.82 *L 0.000977 *D DFFR_X1
*I *726:CK I *C 9.705 6.02 *L 0.000977 *D DFFR_X1
*I *725:CK I *C 14.075 6.02 *L 0.000977 *D DFFR_X1
*I *724:CK I *C 13.695 8.82 *L 0.000977 *D DFFR_X1
*I *723:CK I *C 18.635 6.02 *L 0.000977 *D DFFR_X1
*I *722:CK I *C 21.295 6.86 *L 0.000977 *D DFFR_X1
*I *721:CK I *C 23.195 6.02 *L 0.000977 *D DFFR_X1
*I *720:CK I *C 23.925 6.02 *L 0.000977 *D DFFR_X1
*I *703:CK I *C 16.705 12.46 *L 0.000977 *D DFFR_X1
*I *702:CK I *C 20.695 20.02 *L 0.000977 *D DFFR_X1
*I *701:CK I *C 19.745 22.82 *L 0.000977 *D DFFR_X1
*I *700:CK I *C 16.515 18.06 *L 0.000977 *D DFFR_X1
*I *699:CK I *C 18.985 23.66 *L 0.000977 *D DFFR_X1
*I *698:CK I *C 23.355 23.66 *L 0.000977 *D DFFR_X1
*I *697:CK I *C 21.645 25.62 *L 0.000977 *D DFFR_X1
*I *696:CK I *C 21.075 29.26 *L 0.000977 *D DFFR_X1
*I *679:CK I *C 18.415 28.42 *L 0.000977 *D DFFR_X1
*I *678:CK I *C 17.085 34.86 *L 0.000977 *D DFFR_X1
*I *677:CK I *C 16.895 36.82 *L 0.000977 *D DFFR_X1
*I *676:CK I *C 15.185 42.42 *L 0.000977 *D DFFR_X1
*I *675:CK I *C 21.835 42.42 *L 0.000977 *D DFFR_X1
*I *674:CK I *C 22.405 40.46 *L 0.000977 *D DFFR_X1
*I *673:CK I *C 18.035 40.46 *L 0.000977 *D DFFR_X1

*CAP
1 *1 1.675e-05
2 *729:CK 1.662e-05
3 *728:CK 1.662e-05
4 *727:CK 1.662e-05
5 *726:CK 1.662e-05
6 *725:CK 1.662e-05
7 *724:CK 1.662e-05
8 *723:CK 1.662e-05
9 *722:CK 1.662e-05
10 *721:CK 1.662e-05
11 *720:CK 1.662e-05
12 *703:CK 1.662e-05
13 *702:CK 1.662e-05
14 *701:CK 1.662e-05
15 *700:CK 1.662e-05
16 *699:CK 1.662e-05
17 *698:CK 1.662e-05
18 *697:CK 1.662e-05
19 *696:CK 1.662e-05
20 *679:CK 1.662e-05
21 *678:CK 1.662e-05
22 *677:CK 1.662e-05
23 *676:CK 1.662e-05
24 *675:CK 1.662e-05
25 *674:CK 1.662e-05
26 *673:CK 1.662e-05
27 *1:26 3.261e-05
28 *1:27 4.511e-05
29 *1:28 5.819e-05
30 *1:29 7.795e-05
31 *1:30 1.714e-05
32 *1:31 4.705e-05
33 *1:32 4.705e-05
34 *1:33 5.211e-05
35 *1:34 5.439e-05
36 *1:35 2.167e-05
37 *1:36 0.00011375
38 *1:37 0.00010198
39 *1:38 6.263e-05
40 *1:39 6.263e-05
41 *1:40 1.261e-05
42 *1:41 1.261e-05
43 *1:42 2.775e-05
44 *1:43 4.209e-05
45 *1:44 2.424e-05
46 *1:45 0.00014834
47 *1:46 0.00014195
48 *1:47 7.949e-05
49 *1:48 7.949e-05
50 *1:49 9.993e-05
51 *1:50 4.401e-05
52 *1:51 6.37e-05
53 *1:52 5.628e-05
54 *1:53 7.051e-05
55 *1:54 4.841e-05
56 *1:55 1.766e-05
57 *1:56 1.766e-05
58 *1:57 5.032e-05
59 *1:58 5.26e-05
60 *1:59 7.689e-05
61 *1:60 7.689e-05
62 *1:61 6.386e-05
63 *1:62 8.602e-05
64 *1:63 2.944e-05
65 *1:64 2.885e-05
66 *1:65 0.00011722
67 *1:66 0.00010837
68 *1:67 5.317e-05
69 *1:68 5.317e-05
70 *1:69 0.00010188
71 *1:70 0.00015043
72 *1:71 0.00013549
73 *1:72 1.761e-05
74 *1:73 1.761e-05
75 *1:74 4.077e-05
76 *1:75 3.849e-05
77 *1:76 4.368e-05
78 *1:77 4.368e-05
79 *1:78 2.177e-05
80 *1:79 2.177e-05
81 *1:80 8.477e-05
82 *1:81 8.477e-05
83 *1:82 3.787e-05
84 *1:83 1.761e-05
85 *1:84 7.451e-05
86 *1:85 7.451e-05
87 *1:86 5.537e-05
88 *1:87 5.537e-05
89 *1:88 0.00017227
90 *1:89 0.00016531
91 *1:90 2.494e-05
92 *1:91 2.742e-05
93 *1:92 6.07e-05
94 *1:93 6.068e-05
95 *1:94 0.00011335
96 *1:95 0.00011335
97 *1:96 7.633e-05
98 *1:97 6.934e-05
99 *1:98 4.111e-05
100 *1:99 4.111e-05
101 *1:100 9.565e-05
102 *1:101 5.941e-05
103 *1:102 0.00018739
104 *1:103 0.00018739
105 *1:104 0.00028613
106 *1:105 0.00028613
107 *1:106 0.00012461
108 *1:107 0.00011455
109 *1:108 9.451e-05
110 *1:109 2.823e-05
111 *1:110 2.823e-05
112 *1:111 0.00014226
113 *1:112 0.0001717
114 *1:113 1.236e-05
115 *1:114 3.82e-05
116 *1:115 3.82e-05
117 *1:116 4.416e-05
118 *1:117 4.416e-05
119 *1:118 3.704e-05
120 *1:119 8.756e-05
121 *1:120 3.78e-05
122 *1:121 5.736e-05
123 *1:122 3.712e-05
124 *1:123 4.588e-05
125 *1:124 0.00014258
126 *1:125 0.0001089
127 *1:126 7.541e-05
128 *1:127 7.541e-05
129 *1:128 2.678e-05
130 *1:129 2.906e-05
131 *1:130 5.134e-05
132 *1:131 5.38e-05
133 *1:132 4.991e-05
134 *1:133 4.991e-05
135 *1:134 3.155e-05
136 *1:135 2.925e-05
137 *1:136 1.466e-05
138 *1:137 4.274e-05
139 *1:138 6.864e-05
140 *1:139 0.00011309
141 *1:140 0.00011309
142 *1:141 2.175e-05
143 *1:142 2.207e-05
144 *1:143 8.413e-05
145 *1:144 2.524e-05
146 *1:145 2.492e-05
147 *1:146 2.403e-05
148 *1:147 2e-05
149 *1:148 8.662e-05
150 *1:149 6.352e-05
151 *1:150 5.611e-05
152 *1:151 0.0001115
153 *1:152 1.714e-05
154 *1:153 1.714e-05
155 *1:154 5.616e-05
156 *1:155 6.255e-05
157 *1:156 1.52e-05
158 *1:157 1.226e-05
159 *1:158 2.39e-05
160 *1:159 5.784e-05
161 *1:160 3.014e-05
162 *1:161 2.885e-05
163 *1:162 6.338e-05
164 *1:163 6.529e-05
165 *1:164 0.00010718
166 *1:165 0.00010718
167 *1:166 3.436e-05
168 *1:167 1.99e-05
169 *1:168 2.689e-05
170 *1:169 1.52e-05
171 *1:170 2.917e-05
172 *1:171 7.066e-05

*RES
1 *1:128 *727:CK 5
2 *1:129 *1:128 1.5
3 *1:129 *1:31 0.678571
4 *1:32 *1:31 4
5 *1:78 *1:32 0.678571
6 *1:79 *1:78 1.5
7 *1:28 *1:79 0.678571
8 *1:29 *1:28 4.5
9 *1:29 *1:27 2.03571
10 *1:33 *724:CK 5
11 *1:27 *1:26 1.5
12 *1:26 *726:CK 5
13 *1:34 *1:33 5.5
14 *1:26 *1:30 1
15 *1:74 *1:34 0.678571
16 *1:71 *1:30 5
17 *1:75 *1:74 3.5
18 *1:73 *725:CK 5
19 *1:71 *1:70 13.5714
20 *1:70 *1:75 5
21 *1:73 *1:72 1
22 *1:70 *1:69 2.03571
23 *1:69 *1:72 5
24 *1:69 *1:148 8.14286
25 *1:148 *1:60 0.5
26 *1:60 *1:59 6.78571
27 *1:153 *723:CK 5
28 *1:147 *1:59 0.5
29 *1:153 *1:152 1
30 *1:76 *722:CK 5
31 *1:147 *1:66 1.35714
32 *1:66 *1:152 5
33 *1:77 *1:76 2.5
34 *1:66 *1:65 9.5
35 *1:65 *1:77 5
36 *1:65 *1:64 1.35714
37 *1:68 *1:64 0.5
38 *1:56 *721:CK 5
39 *1:68 *1:67 4.07143
40 *1:56 *1:55 1
41 *1:67 *1:63 0.5
42 *1:62 *1:55 5
43 *1:63 *1:62 1.35714
44 *1:83 *720:CK 5
45 *1:62 *1:61 3.39286
46 *1:83 *1:82 1
47 *1:82 *1:61 5
48 *1:82 *1:160 1.5
49 *1:160 *1:81 0.678571
50 *1:81 *1:80 8
51 *1:85 *1:80 0.678571
52 *1:85 *1:84 8.5
53 *1:58 *1:84 0.678571
54 *1:58 *1:57 5
55 *1:170 *1:57 5
56 *1:161 *1:170 1.35714
57 *1:86 *1:161 0.5
58 *1:87 *1:86 4.07143
59 *1:162 *1:87 0.5
60 *1:171 *1:162 5.42857
61 *1:171 *1:88 1
62 *1:113 *703:CK 5
63 *1:89 *1:88 14.25
64 *1:113 *1:91 0.5
65 *1:91 *1:89 5
66 *1:91 *1:90 1.5
67 *1:93 *1:90 0.678571
68 *1:93 *1:92 6.5
69 *1 *1:146 1.57143
70 *1:39 *1:92 0.678571
71 *1:103 *1:146 0.5
72 *1:39 *1:38 5
73 *1:103 *1:102 16.2857
74 *1:38 *1:37 0.678571
75 *1:102 *1:145 0.5
76 *1:37 *1:36 6.5
77 *1:36 *700:CK 5
78 *1:145 *1:144 1.35714
79 *1:36 *1:35 1
80 *1:110 *1:144 5
81 *1:97 *1:35 5
82 *1:110 *1:109 2
83 *1:97 *1:96 3.39286
84 *1:142 *1:109 5
85 *1:96 *1:95 1
86 *1:142 *1:141 1.35714
87 *1:95 *1:94 10.1786
88 *1:141 *1:105 0.5
89 *1:168 *1:94 1
90 *1:105 *1:104 26.4643
91 *1:168 *1:167 1.35714
92 *1:143 *1:104 0.5
93 *1:50 *1:167 5
94 *1:143 *1:107 7.46429
95 *1:50 *1:49 5.5
96 *1:49 *702:CK 5
97 *1:107 *1:106 3.39286
98 *1:49 *1:149 5
99 *1:106 *1:108 10.1786
100 *1:98 *1:149 5
101 *1:117 *1:108 5
102 *1:99 *1:98 3.39286
103 *1:117 *1:116 2.5
104 *1:116 *699:CK 5
105 *1:169 *698:CK 5
106 *1:101 *1:99 5
107 *1:118 *1:116 5
108 *1:111 *1:169 5
109 *1:101 *1:100 5
110 *1:100 *701:CK 5
111 *1:118 *1:112 2.71429
112 *1:112 *1:111 12.8929
113 *1:54 *697:CK 5
114 *1:100 *1:159 3.5
115 *1:159 *1:112 5
116 *1:54 *1:53 6.5
117 *1:159 *1:158 1.5
118 *1:52 *1:53 2.03571
119 *1:122 *696:CK 5
120 *1:158 *1:115 0.678571
121 *1:156 *679:CK 5
122 *1:52 *1:51 3.5
123 *1:51 *1:122 3.5
124 *1:115 *1:114 4.5
125 *1:120 *1:156 5
126 *1:121 *1:51 5
127 *1:125 *1:114 0.678571
128 *1:120 *1:119 4.75
129 *1:119 *1:121 4.75
130 *1:125 *1:124 10.5
131 *1:124 *1:119 5
132 *1:124 *1:123 3
133 *1:123 *1:48 0.678571
134 *1:48 *1:47 5.5
135 *1:163 *1:47 0.678571
136 *1:163 *1:151 5
137 *1:151 *728:CK 5
138 *1:151 *1:150 6.5
139 *1:126 *1:150 5
140 *1:127 *1:126 8.82143
141 *1:135 *729:CK 5
142 *1:135 *1:127 5
143 *1:135 *1:134 3
144 *1:136 *1:134 0.678571
145 *1:136 *1:131 0.5
146 *1:131 *678:CK 5
147 *1:131 *1:130 4
148 *1:44 *1:130 0.678571
149 *1:44 *1:43 2.5
150 *1:43 *677:CK 5
151 *1:43 *1:42 1.5
152 *1:40 *676:CK 5
153 *1:133 *1:42 5
154 *1:41 *1:40 0.5
155 *1:133 *1:132 4.07143
156 *1:164 *1:41 5
157 *1:46 *1:132 5
158 *1:164 *1:165 10.1786
159 *1:46 *1:45 12
160 *1:45 *673:CK 5
161 *1:154 *1:165 5
162 *1:45 *1:155 0.5
163 *1:155 *1:154 5.5
164 *1:140 *1:155 5
165 *1:140 *1:139 13.5714
166 *1:137 *675:CK 5
167 *1:138 *1:139 5
168 *1:138 *1:137 6
169 *1:138 *1:166 2.03571
170 *1:157 *1:166 0.5
171 *674:CK *1:157 5
*END

*D_NET *2 0.00881068

*CONN
*P *2 I *C 0 22.75 *L 0
*I *729:RN I *C 18.595 33.275 *L 0.00178 *D DFFR_X1
*I *728:RN I *C 21.065 32.805 *L 0.00178 *D DFFR_X1
*I *727:RN I *C 8.005 8.075 *L 0.00178 *D DFFR_X1
*I *726:RN I *C 8.385 5.275 *L 0.00178 *D DFFR_X1
*I *725:RN I *C 12.755 5.275 *L 0.00178 *D DFFR_X1
*I *724:RN I *C 12.375 8.075 *L 0.00178 *D DFFR_X1
*I *723:RN I *C 17.315 5.275 *L 0.00178 *D DFFR_X1
*I *722:RN I *C 19.975 7.605 *L 0.00178 *D DFFR_X1
*I *721:RN I *C 21.875 5.275 *L 0.00178 *D DFFR_X1
*I *720:RN I *C 25.245 5.275 *L 0.00178 *D DFFR_X1
*I *703:RN I *C 18.025 13.205 *L 0.00178 *D DFFR_X1
*I *702:RN I *C 22.015 19.275 *L 0.00178 *D DFFR_X1
*I *701:RN I *C 21.065 22.075 *L 0.00178 *D DFFR_X1
*I *700:RN I *C 17.835 18.805 *L 0.00178 *D DFFR_X1
*I *699:RN I *C 20.305 24.405 *L 0.00178 *D DFFR_X1
*I *698:RN I *C 24.675 24.405 *L 0.00178 *D DFFR_X1
*I *697:RN I *C 22.965 24.875 *L 0.00178 *D DFFR_X1
*I *696:RN I *C 22.395 30.005 *L 0.00178 *D DFFR_X1
*I *679:RN I *C 19.735 27.675 *L 0.00178 *D DFFR_X1
*I *678:RN I *C 18.405 35.605 *L 0.00178 *D DFFR_X1
*I *677:RN I *C 18.215 36.075 *L 0.00178 *D DFFR_X1
*I *676:RN I *C 16.505 41.675 *L 0.00178 *D DFFR_X1
*I *675:RN I *C 23.155 41.675 *L 0.00178 *D DFFR_X1
*I *674:RN I *C 23.725 41.205 *L 0.00178 *D DFFR_X1
*I *673:RN I *C 19.355 41.205 *L 0.00178 *D DFFR_X1

*CAP
1 *2 0.0002338
2 *729:RN 3.324e-05
3 *728:RN 3.324e-05
4 *727:RN 1.662e-05
5 *726:RN 1.662e-05
6 *725:RN 1.662e-05
7 *724:RN 1.662e-05
8 *723:RN 1.662e-05
9 *722:RN 1.662e-05
10 *721:RN 1.662e-05
11 *720:RN 1.662e-05
12 *703:RN 3.324e-05
13 *702:RN 1.662e-05
14 *701:RN 1.662e-05
15 *700:RN 1.662e-05
16 *699:RN 1.662e-05
17 *698:RN 1.662e-05